{ "id": 108592307, "node_id": "MDEwOlJlcG9zaXRvcnkxMDg1OTIzMDc=", "name": "sumo", "full_name": "eclipse/sumo", "private": false, "owner": { "login": "eclipse", "id": 56974, "node_id": "MDEyOk9yZ2FuaXphdGlvbjU2OTc0", "avatar_url": "https://avatars.githubusercontent.com/u/56974?v=4", "gravatar_id": "", "url": "https://api.github.com/users/eclipse", "html_url": "https://github.com/eclipse", "followers_url": "https://api.github.com/users/eclipse/followers", "following_url": "https://api.github.com/users/eclipse/following{/other_user}", "gists_url": "https://api.github.com/users/eclipse/gists{/gist_id}", "starred_url": "https://api.github.com/users/eclipse/starred{/owner}{/repo}", "subscriptions_url": "https://api.github.com/users/eclipse/subscriptions", "organizations_url": "https://api.github.com/users/eclipse/orgs", "repos_url": "https://api.github.com/users/eclipse/repos", "events_url": "https://api.github.com/users/eclipse/events{/privacy}", "received_events_url": "https://api.github.com/users/eclipse/received_events", "type": "Organization", "site_admin": false }, "html_url": "https://github.com/eclipse/sumo", "description": "Eclipse SUMO is an open source, highly portable, microscopic and continuous traffic simulation package designed to handle large networks. It allows for intermodal simulation including pedestrians and comes with a large set of tools for scenario creation.", "fork": false, "url": "https://api.github.com/repos/eclipse/sumo", "forks_url": "https://api.github.com/repos/eclipse/sumo/forks", "keys_url": "https://api.github.com/repos/eclipse/sumo/keys{/key_id}", "collaborators_url": "https://api.github.com/repos/eclipse/sumo/collaborators{/collaborator}", "teams_url": "https://api.github.com/repos/eclipse/sumo/teams", "hooks_url": "https://api.github.com/repos/eclipse/sumo/hooks", "issue_events_url": "https://api.github.com/repos/eclipse/sumo/issues/events{/number}", "events_url": "https://api.github.com/repos/eclipse/sumo/events", "assignees_url": "https://api.github.com/repos/eclipse/sumo/assignees{/user}", "branches_url": "https://api.github.com/repos/eclipse/sumo/branches{/branch}", "tags_url": "https://api.github.com/repos/eclipse/sumo/tags", "blobs_url": "https://api.github.com/repos/eclipse/sumo/git/blobs{/sha}", "git_tags_url": "https://api.github.com/repos/eclipse/sumo/git/tags{/sha}", "git_refs_url": "https://api.github.com/repos/eclipse/sumo/git/refs{/sha}", "trees_url": "https://api.github.com/repos/eclipse/sumo/git/trees{/sha}", "statuses_url": "https://api.github.com/repos/eclipse/sumo/statuses/{sha}", "languages_url": "https://api.github.com/repos/eclipse/sumo/languages", "stargazers_url": "https://api.github.com/repos/eclipse/sumo/stargazers", "contributors_url": "https://api.github.com/repos/eclipse/sumo/contributors", "subscribers_url": "https://api.github.com/repos/eclipse/sumo/subscribers", "subscription_url": "https://api.github.com/repos/eclipse/sumo/subscription", "commits_url": "https://api.github.com/repos/eclipse/sumo/commits{/sha}", "git_commits_url": "https://api.github.com/repos/eclipse/sumo/git/commits{/sha}", "comments_url": "https://api.github.com/repos/eclipse/sumo/comments{/number}", "issue_comment_url": "https://api.github.com/repos/eclipse/sumo/issues/comments{/number}", "contents_url": "https://api.github.com/repos/eclipse/sumo/contents/{+path}", "compare_url": "https://api.github.com/repos/eclipse/sumo/compare/{base}...{head}", "merges_url": "https://api.github.com/repos/eclipse/sumo/merges", "archive_url": "https://api.github.com/repos/eclipse/sumo/{archive_format}{/ref}", "downloads_url": "https://api.github.com/repos/eclipse/sumo/downloads", "issues_url": "https://api.github.com/repos/eclipse/sumo/issues{/number}", "pulls_url": "https://api.github.com/repos/eclipse/sumo/pulls{/number}", "milestones_url": "https://api.github.com/repos/eclipse/sumo/milestones{/number}", "notifications_url": "https://api.github.com/repos/eclipse/sumo/notifications{?since,all,participating}", "labels_url": "https://api.github.com/repos/eclipse/sumo/labels{/name}", "releases_url": "https://api.github.com/repos/eclipse/sumo/releases{/id}", "deployments_url": "https://api.github.com/repos/eclipse/sumo/deployments", "created_at": "2017-10-27T20:23:17Z", "updated_at": "2023-02-10T13:32:13Z", "pushed_at": "2023-02-10T15:34:11Z", "git_url": "git://github.com/eclipse/sumo.git", "ssh_url": "git@github.com:eclipse/sumo.git", "clone_url": "https://github.com/eclipse/sumo.git", "svn_url": "https://github.com/eclipse/sumo", "homepage": "https://eclipse.org/sumo", "size": 1044929, "stargazers_count": 1778, "watchers_count": 1778, "language": null, "has_issues": true, "has_projects": false, "has_downloads": true, "has_wiki": false, "has_pages": false, "has_discussions": false, "forks_count": 1081, "mirror_url": null, "archived": false, "disabled": false, "open_issues_count": 2124, "license": { "key": "epl-2.0", "name": "Eclipse Public License 2.0", "spdx_id": "EPL-2.0", "url": "https://api.github.com/licenses/epl-2.0", "node_id": "MDc6TGljZW5zZTMy" }, "allow_forking": true, "is_template": false, "web_commit_signoff_required": false, "topics": [ "simulation", "traffic", "transport" ], "visibility": "public", "forks": 1081, "open_issues": 2124, "watchers": 1778, "default_branch": "main", "permissions": { "admin": false, "maintain": false, "push": false, "triage": false, "pull": true }, "temp_clone_token": "", "organization": { "login": "eclipse", "id": 56974, "node_id": "MDEyOk9yZ2FuaXphdGlvbjU2OTc0", "avatar_url": "https://avatars.githubusercontent.com/u/56974?v=4", "gravatar_id": "", "url": "https://api.github.com/users/eclipse", "html_url": "https://github.com/eclipse", "followers_url": "https://api.github.com/users/eclipse/followers", "following_url": "https://api.github.com/users/eclipse/following{/other_user}", "gists_url": "https://api.github.com/users/eclipse/gists{/gist_id}", "starred_url": "https://api.github.com/users/eclipse/starred{/owner}{/repo}", "subscriptions_url": "https://api.github.com/users/eclipse/subscriptions", "organizations_url": "https://api.github.com/users/eclipse/orgs", "repos_url": "https://api.github.com/users/eclipse/repos", "events_url": "https://api.github.com/users/eclipse/events{/privacy}", "received_events_url": "https://api.github.com/users/eclipse/received_events", "type": "Organization", "site_admin": false }, "network_count": 1081, "subscribers_count": 70 }
