{ "id": 67069756, "node_id": "MDEwOlJlcG9zaXRvcnk2NzA2OTc1Ng==", "name": "openfast", "full_name": "OpenFAST/openfast", "private": false, "owner": { "login": "OpenFAST", "id": 15838605, "node_id": "MDEyOk9yZ2FuaXphdGlvbjE1ODM4NjA1", "avatar_url": "https://avatars.githubusercontent.com/u/15838605?v=4", "gravatar_id": "", "url": "https://api.github.com/users/OpenFAST", "html_url": "https://github.com/OpenFAST", "followers_url": "https://api.github.com/users/OpenFAST/followers", "following_url": "https://api.github.com/users/OpenFAST/following{/other_user}", "gists_url": "https://api.github.com/users/OpenFAST/gists{/gist_id}", "starred_url": "https://api.github.com/users/OpenFAST/starred{/owner}{/repo}", "subscriptions_url": "https://api.github.com/users/OpenFAST/subscriptions", "organizations_url": "https://api.github.com/users/OpenFAST/orgs", "repos_url": "https://api.github.com/users/OpenFAST/repos", "events_url": "https://api.github.com/users/OpenFAST/events{/privacy}", "received_events_url": "https://api.github.com/users/OpenFAST/received_events", "type": "Organization", "site_admin": false }, "html_url": "https://github.com/OpenFAST/openfast", "description": "Main repository for the NREL-supported OpenFAST whole-turbine and FAST.Farm wind farm simulation codes.", "fork": false, "url": "https://api.github.com/repos/OpenFAST/openfast", "forks_url": "https://api.github.com/repos/OpenFAST/openfast/forks", "keys_url": "https://api.github.com/repos/OpenFAST/openfast/keys{/key_id}", "collaborators_url": "https://api.github.com/repos/OpenFAST/openfast/collaborators{/collaborator}", "teams_url": "https://api.github.com/repos/OpenFAST/openfast/teams", "hooks_url": "https://api.github.com/repos/OpenFAST/openfast/hooks", "issue_events_url": "https://api.github.com/repos/OpenFAST/openfast/issues/events{/number}", "events_url": "https://api.github.com/repos/OpenFAST/openfast/events", "assignees_url": "https://api.github.com/repos/OpenFAST/openfast/assignees{/user}", "branches_url": "https://api.github.com/repos/OpenFAST/openfast/branches{/branch}", "tags_url": "https://api.github.com/repos/OpenFAST/openfast/tags", "blobs_url": "https://api.github.com/repos/OpenFAST/openfast/git/blobs{/sha}", "git_tags_url": "https://api.github.com/repos/OpenFAST/openfast/git/tags{/sha}", "git_refs_url": "https://api.github.com/repos/OpenFAST/openfast/git/refs{/sha}", "trees_url": "https://api.github.com/repos/OpenFAST/openfast/git/trees{/sha}", "statuses_url": "https://api.github.com/repos/OpenFAST/openfast/statuses/{sha}", "languages_url": "https://api.github.com/repos/OpenFAST/openfast/languages", "stargazers_url": "https://api.github.com/repos/OpenFAST/openfast/stargazers", "contributors_url": "https://api.github.com/repos/OpenFAST/openfast/contributors", "subscribers_url": "https://api.github.com/repos/OpenFAST/openfast/subscribers", "subscription_url": "https://api.github.com/repos/OpenFAST/openfast/subscription", "commits_url": "https://api.github.com/repos/OpenFAST/openfast/commits{/sha}", "git_commits_url": "https://api.github.com/repos/OpenFAST/openfast/git/commits{/sha}", "comments_url": "https://api.github.com/repos/OpenFAST/openfast/comments{/number}", "issue_comment_url": "https://api.github.com/repos/OpenFAST/openfast/issues/comments{/number}", "contents_url": "https://api.github.com/repos/OpenFAST/openfast/contents/{+path}", "compare_url": "https://api.github.com/repos/OpenFAST/openfast/compare/{base}...{head}", "merges_url": "https://api.github.com/repos/OpenFAST/openfast/merges", "archive_url": "https://api.github.com/repos/OpenFAST/openfast/{archive_format}{/ref}", "downloads_url": "https://api.github.com/repos/OpenFAST/openfast/downloads", "issues_url": "https://api.github.com/repos/OpenFAST/openfast/issues{/number}", "pulls_url": "https://api.github.com/repos/OpenFAST/openfast/pulls{/number}", "milestones_url": "https://api.github.com/repos/OpenFAST/openfast/milestones{/number}", "notifications_url": "https://api.github.com/repos/OpenFAST/openfast/notifications{?since,all,participating}", "labels_url": "https://api.github.com/repos/OpenFAST/openfast/labels{/name}", "releases_url": "https://api.github.com/repos/OpenFAST/openfast/releases{/id}", "deployments_url": "https://api.github.com/repos/OpenFAST/openfast/deployments", "created_at": "2016-08-31T20:07:10Z", "updated_at": "2023-02-11T02:21:56Z", "pushed_at": "2023-02-10T22:23:31Z", "git_url": "git://github.com/OpenFAST/openfast.git", "ssh_url": "git@github.com:OpenFAST/openfast.git", "clone_url": "https://github.com/OpenFAST/openfast.git", "svn_url": "https://github.com/OpenFAST/openfast", "homepage": "http://openfast.readthedocs.io", "size": 252278, "stargazers_count": 444, "watchers_count": 444, "language": "Fortran", "has_issues": true, "has_projects": true, "has_downloads": true, "has_wiki": true, "has_pages": false, "has_discussions": true, "forks_count": 381, "mirror_url": null, "archived": false, "disabled": false, "open_issues_count": 189, "license": { "key": "apache-2.0", "name": "Apache License 2.0", "spdx_id": "Apache-2.0", "url": "https://api.github.com/licenses/apache-2.0", "node_id": "MDc6TGljZW5zZTI=" }, "allow_forking": true, "is_template": false, "web_commit_signoff_required": false, "topics": [ "aeroelasticity", "wind", "wind-energy", "wind-farm", "wind-power", "wind-turbine" ], "visibility": "public", "forks": 381, "open_issues": 189, "watchers": 444, "default_branch": "main", "permissions": { "admin": false, "maintain": false, "push": false, "triage": false, "pull": true }, "temp_clone_token": "", "organization": { "login": "OpenFAST", "id": 15838605, "node_id": "MDEyOk9yZ2FuaXphdGlvbjE1ODM4NjA1", "avatar_url": "https://avatars.githubusercontent.com/u/15838605?v=4", "gravatar_id": "", "url": "https://api.github.com/users/OpenFAST", "html_url": "https://github.com/OpenFAST", "followers_url": "https://api.github.com/users/OpenFAST/followers", "following_url": "https://api.github.com/users/OpenFAST/following{/other_user}", "gists_url": "https://api.github.com/users/OpenFAST/gists{/gist_id}", "starred_url": "https://api.github.com/users/OpenFAST/starred{/owner}{/repo}", "subscriptions_url": "https://api.github.com/users/OpenFAST/subscriptions", "organizations_url": "https://api.github.com/users/OpenFAST/orgs", "repos_url": "https://api.github.com/users/OpenFAST/repos", "events_url": "https://api.github.com/users/OpenFAST/events{/privacy}", "received_events_url": "https://api.github.com/users/OpenFAST/received_events", "type": "Organization", "site_admin": false }, "network_count": 381, "subscribers_count": 68 }
