{ "id": 29684948, "node_id": "MDEwOlJlcG9zaXRvcnkyOTY4NDk0OA==", "name": "vehicle2grid-dynamic-simulation-PSSE", "full_name": "gajduk/vehicle2grid-dynamic-simulation-PSSE", "private": false, "owner": { "login": "gajduk", "id": 3776580, "node_id": "MDQ6VXNlcjM3NzY1ODA=", "avatar_url": "https://avatars.githubusercontent.com/u/3776580?v=4", "gravatar_id": "", "url": "https://api.github.com/users/gajduk", "html_url": "https://github.com/gajduk", "followers_url": "https://api.github.com/users/gajduk/followers", "following_url": "https://api.github.com/users/gajduk/following{/other_user}", "gists_url": "https://api.github.com/users/gajduk/gists{/gist_id}", "starred_url": "https://api.github.com/users/gajduk/starred{/owner}{/repo}", "subscriptions_url": "https://api.github.com/users/gajduk/subscriptions", "organizations_url": "https://api.github.com/users/gajduk/orgs", "repos_url": "https://api.github.com/users/gajduk/repos", "events_url": "https://api.github.com/users/gajduk/events{/privacy}", "received_events_url": "https://api.github.com/users/gajduk/received_events", "type": "User", "site_admin": false }, "html_url": "https://github.com/gajduk/vehicle2grid-dynamic-simulation-PSSE", "description": "A python framework for running dynamic simulation of power systems with vehicle to grid using the PSS/E software.", "fork": false, "url": "https://api.github.com/repos/gajduk/vehicle2grid-dynamic-simulation-PSSE", "forks_url": "https://api.github.com/repos/gajduk/vehicle2grid-dynamic-simulation-PSSE/forks", "keys_url": "https://api.github.com/repos/gajduk/vehicle2grid-dynamic-simulation-PSSE/keys{/key_id}", "collaborators_url": "https://api.github.com/repos/gajduk/vehicle2grid-dynamic-simulation-PSSE/collaborators{/collaborator}", "teams_url": "https://api.github.com/repos/gajduk/vehicle2grid-dynamic-simulation-PSSE/teams", "hooks_url": "https://api.github.com/repos/gajduk/vehicle2grid-dynamic-simulation-PSSE/hooks", "issue_events_url": "https://api.github.com/repos/gajduk/vehicle2grid-dynamic-simulation-PSSE/issues/events{/number}", "events_url": "https://api.github.com/repos/gajduk/vehicle2grid-dynamic-simulation-PSSE/events", "assignees_url": "https://api.github.com/repos/gajduk/vehicle2grid-dynamic-simulation-PSSE/assignees{/user}", "branches_url": "https://api.github.com/repos/gajduk/vehicle2grid-dynamic-simulation-PSSE/branches{/branch}", "tags_url": "https://api.github.com/repos/gajduk/vehicle2grid-dynamic-simulation-PSSE/tags", "blobs_url": "https://api.github.com/repos/gajduk/vehicle2grid-dynamic-simulation-PSSE/git/blobs{/sha}", "git_tags_url": "https://api.github.com/repos/gajduk/vehicle2grid-dynamic-simulation-PSSE/git/tags{/sha}", "git_refs_url": "https://api.github.com/repos/gajduk/vehicle2grid-dynamic-simulation-PSSE/git/refs{/sha}", "trees_url": "https://api.github.com/repos/gajduk/vehicle2grid-dynamic-simulation-PSSE/git/trees{/sha}", "statuses_url": "https://api.github.com/repos/gajduk/vehicle2grid-dynamic-simulation-PSSE/statuses/{sha}", "languages_url": "https://api.github.com/repos/gajduk/vehicle2grid-dynamic-simulation-PSSE/languages", "stargazers_url": "https://api.github.com/repos/gajduk/vehicle2grid-dynamic-simulation-PSSE/stargazers", "contributors_url": "https://api.github.com/repos/gajduk/vehicle2grid-dynamic-simulation-PSSE/contributors", "subscribers_url": "https://api.github.com/repos/gajduk/vehicle2grid-dynamic-simulation-PSSE/subscribers", "subscription_url": "https://api.github.com/repos/gajduk/vehicle2grid-dynamic-simulation-PSSE/subscription", "commits_url": "https://api.github.com/repos/gajduk/vehicle2grid-dynamic-simulation-PSSE/commits{/sha}", "git_commits_url": "https://api.github.com/repos/gajduk/vehicle2grid-dynamic-simulation-PSSE/git/commits{/sha}", "comments_url": "https://api.github.com/repos/gajduk/vehicle2grid-dynamic-simulation-PSSE/comments{/number}", "issue_comment_url": "https://api.github.com/repos/gajduk/vehicle2grid-dynamic-simulation-PSSE/issues/comments{/number}", "contents_url": "https://api.github.com/repos/gajduk/vehicle2grid-dynamic-simulation-PSSE/contents/{+path}", "compare_url": "https://api.github.com/repos/gajduk/vehicle2grid-dynamic-simulation-PSSE/compare/{base}...{head}", "merges_url": "https://api.github.com/repos/gajduk/vehicle2grid-dynamic-simulation-PSSE/merges", "archive_url": "https://api.github.com/repos/gajduk/vehicle2grid-dynamic-simulation-PSSE/{archive_format}{/ref}", "downloads_url": "https://api.github.com/repos/gajduk/vehicle2grid-dynamic-simulation-PSSE/downloads", "issues_url": "https://api.github.com/repos/gajduk/vehicle2grid-dynamic-simulation-PSSE/issues{/number}", "pulls_url": "https://api.github.com/repos/gajduk/vehicle2grid-dynamic-simulation-PSSE/pulls{/number}", "milestones_url": "https://api.github.com/repos/gajduk/vehicle2grid-dynamic-simulation-PSSE/milestones{/number}", "notifications_url": "https://api.github.com/repos/gajduk/vehicle2grid-dynamic-simulation-PSSE/notifications{?since,all,participating}", "labels_url": "https://api.github.com/repos/gajduk/vehicle2grid-dynamic-simulation-PSSE/labels{/name}", "releases_url": "https://api.github.com/repos/gajduk/vehicle2grid-dynamic-simulation-PSSE/releases{/id}", "deployments_url": "https://api.github.com/repos/gajduk/vehicle2grid-dynamic-simulation-PSSE/deployments", "created_at": "2015-01-22T15:21:52Z", "updated_at": "2022-12-26T04:17:08Z", "pushed_at": "2016-04-12T09:55:20Z", "git_url": "git://github.com/gajduk/vehicle2grid-dynamic-simulation-PSSE.git", "ssh_url": "git@github.com:gajduk/vehicle2grid-dynamic-simulation-PSSE.git", "clone_url": "https://github.com/gajduk/vehicle2grid-dynamic-simulation-PSSE.git", "svn_url": "https://github.com/gajduk/vehicle2grid-dynamic-simulation-PSSE", "homepage": null, "size": 81, "stargazers_count": 24, "watchers_count": 24, "language": "Python", "has_issues": true, "has_projects": true, "has_downloads": true, "has_wiki": true, "has_pages": false, "has_discussions": false, "forks_count": 12, "mirror_url": null, "archived": false, "disabled": false, "open_issues_count": 1, "license": { "key": "mit", "name": "MIT License", "spdx_id": "MIT", "url": "https://api.github.com/licenses/mit", "node_id": "MDc6TGljZW5zZTEz" }, "allow_forking": true, "is_template": false, "web_commit_signoff_required": false, "topics": [ ], "visibility": "public", "forks": 12, "open_issues": 1, "watchers": 24, "default_branch": "master", "permissions": { "admin": false, "maintain": false, "push": false, "triage": false, "pull": true }, "temp_clone_token": "", "network_count": 12, "subscribers_count": 5 }
