HTTP/1.1 200 OK Date: Wed, 21 Dec 2022 09:03:49 GMT Server: gunicorn/19.9.0 Content-Type: application/json Link: <https://archive.softwareheritage.org/api/1/origin/https://github.com/OpenFAST/openfast/visits/?last_visit=17>; rel="next" Vary: Accept,Cookie,Accept-Encoding Allow: HEAD, OPTIONS, OPTIONS, GET X-RateLimit-Limit: 1200 X-RateLimit-Remaining: 50 X-RateLimit-Reset: 1671613429 X-Frame-Options: SAMEORIGIN Content-Length: 4291 Via: 1.1 archive.softwareheritage.org X-Varnish: 41586292 Age: 0 Via: 1.1 varnish (Varnish/6.1) Strict-Transport-Security: max-age=15768000; Accept-Ranges: bytes Connection: keep-alive 
HTTP/1.1 200 OK Date: Wed, 21 Dec 2022 09:03:50 GMT Server: gunicorn/19.9.0 Content-Type: application/json Link: <https://archive.softwareheritage.org/api/1/origin/https://github.com/OpenFAST/openfast/visits/?last_visit=7>; rel="next" Vary: Accept,Cookie,Accept-Encoding Allow: HEAD, OPTIONS, OPTIONS, GET X-RateLimit-Limit: 1200 X-RateLimit-Remaining: 50 X-RateLimit-Reset: 1671613430 X-Frame-Options: SAMEORIGIN Content-Length: 4285 Via: 1.1 archive.softwareheritage.org X-Varnish: 40496703 Age: 0 Via: 1.1 varnish (Varnish/6.1) Strict-Transport-Security: max-age=15768000; Accept-Ranges: bytes Connection: keep-alive 
HTTP/1.1 200 OK Date: Wed, 21 Dec 2022 09:03:51 GMT Server: gunicorn/19.9.0 Content-Type: application/json Vary: Accept,Cookie,Accept-Encoding Allow: HEAD, OPTIONS, OPTIONS, GET X-RateLimit-Limit: 1200 X-RateLimit-Remaining: 51 X-RateLimit-Reset: 1671613431 X-Frame-Options: SAMEORIGIN Content-Length: 2437 Via: 1.1 archive.softwareheritage.org X-Varnish: 40496706 Age: 0 Via: 1.1 varnish (Varnish/6.1) Strict-Transport-Security: max-age=15768000; Accept-Ranges: bytes Connection: keep-alive 
