HTTP/1.1 200 OK Date: Sat, 10 Dec 2022 11:08:23 GMT Server: gunicorn/19.9.0 Content-Type: application/json Link: <https://archive.softwareheritage.org/api/1/origin/https://github.com/OpenFAST/openfast/visits/?last_visit=16>; rel="next" Vary: Accept,Cookie,Accept-Encoding Allow: HEAD, OPTIONS, OPTIONS, GET X-RateLimit-Limit: 1200 X-RateLimit-Remaining: 4 X-RateLimit-Reset: 1670670503 X-Frame-Options: SAMEORIGIN Content-Length: 4291 Via: 1.1 archive.softwareheritage.org X-Varnish: 1120901 Age: 0 Via: 1.1 varnish (Varnish/6.1) Strict-Transport-Security: max-age=15768000; Accept-Ranges: bytes Connection: keep-alive 
HTTP/1.1 200 OK Date: Sat, 10 Dec 2022 11:08:24 GMT Server: gunicorn/19.9.0 Content-Type: application/json Link: <https://archive.softwareheritage.org/api/1/origin/https://github.com/OpenFAST/openfast/visits/?last_visit=6>; rel="next" Vary: Accept,Cookie,Accept-Encoding Allow: HEAD, OPTIONS, OPTIONS, GET X-RateLimit-Limit: 1200 X-RateLimit-Remaining: 3 X-RateLimit-Reset: 1670670503 X-Frame-Options: SAMEORIGIN Content-Length: 4283 Via: 1.1 archive.softwareheritage.org X-Varnish: 1120904 Age: 0 Via: 1.1 varnish (Varnish/6.1) Strict-Transport-Security: max-age=15768000; Accept-Ranges: bytes Connection: keep-alive 
HTTP/1.1 200 OK Date: Sat, 10 Dec 2022 11:08:25 GMT Server: gunicorn/19.9.0 Content-Type: application/json Vary: Accept,Cookie,Accept-Encoding Allow: HEAD, OPTIONS, OPTIONS, GET X-RateLimit-Limit: 1200 X-RateLimit-Remaining: 3 X-RateLimit-Reset: 1670670504 X-Frame-Options: SAMEORIGIN Content-Length: 2010 Via: 1.1 archive.softwareheritage.org X-Varnish: 1093995 Age: 0 Via: 1.1 varnish (Varnish/6.1) Strict-Transport-Security: max-age=15768000; Accept-Ranges: bytes Connection: keep-alive 
