{
  "original_uri": "https://github.com/OpenFAST/openfast",
  "self": "https://memgator.cs.odu.edu/timemap/json/https://github.com/OpenFAST/openfast",
  "mementos": {
    "list": [
      {
        "datetime": "2020-06-16T04:17:51Z",
        "uri": "https://web.archive.org/web/20200616041751/https://github.com/OpenFAST/openfast"
      },
      {
        "datetime": "2020-11-01T07:27:24Z",
        "uri": "https://web.archive.org/web/20201101072724/https://github.com/OpenFAST/openfast"
      },
      {
        "datetime": "2020-12-11T06:30:37Z",
        "uri": "https://web.archive.org/web/20201211063037/https://github.com/OpenFAST/openfast"
      },
      {
        "datetime": "2021-04-30T14:22:33Z",
        "uri": "https://web.archive.org/web/20210430142233/https://github.com/OpenFAST/openfast"
      },
      {
        "datetime": "2021-09-14T21:12:43Z",
        "uri": "https://web.archive.org/web/20210914211243/https://github.com/OpenFAST/openfast"
      },
      {
        "datetime": "2021-11-05T10:08:52Z",
        "uri": "https://web.archive.org/web/20211105100852/https://github.com/OpenFAST/openfast"
      },
      {
        "datetime": "2021-12-08T13:07:51Z",
        "uri": "https://web.archive.org/web/20211208130751/https://github.com/OpenFAST/openfast"
      },
      {
        "datetime": "2022-03-03T00:47:23Z",
        "uri": "https://web.archive.org/web/20220303004723/https://github.com/OpenFAST/openfast"
      },
      {
        "datetime": "2022-03-10T19:13:57Z",
        "uri": "https://web.archive.org/web/20220310191357/https://github.com/OpenFAST/openfast"
      }
    ],
    "first": {
      "datetime": "2020-06-16T04:17:51Z",
      "uri": "https://web.archive.org/web/20200616041751/https://github.com/OpenFAST/openfast"
    },
    "last": {
      "datetime": "2022-03-10T19:13:57Z",
      "uri": "https://web.archive.org/web/20220310191357/https://github.com/OpenFAST/openfast"
    }
  },
  "timemap_uri": {
    "link_format": "https://memgator.cs.odu.edu/timemap/link/https://github.com/OpenFAST/openfast",
    "json_format": "https://memgator.cs.odu.edu/timemap/json/https://github.com/OpenFAST/openfast",
    "cdxj_format": "https://memgator.cs.odu.edu/timemap/cdxj/https://github.com/OpenFAST/openfast"
  },
  "timegate_uri": "https://memgator.cs.odu.edu/timegate/https://github.com/OpenFAST/openfast"
}
