{ "id": 105871037, "node_id": "MDEwOlJlcG9zaXRvcnkxMDU4NzEwMzc=", "name": "METHOD", "full_name": "AlexJamesWright/METHOD", "private": false, "owner": { "login": "AlexJamesWright", "id": 22518150, "node_id": "MDQ6VXNlcjIyNTE4MTUw", "avatar_url": "https://avatars.githubusercontent.com/u/22518150?v=4", "gravatar_id": "", "url": "https://api.github.com/users/AlexJamesWright", "html_url": "https://github.com/AlexJamesWright", "followers_url": "https://api.github.com/users/AlexJamesWright/followers", "following_url": "https://api.github.com/users/AlexJamesWright/following{/other_user}", "gists_url": "https://api.github.com/users/AlexJamesWright/gists{/gist_id}", "starred_url": "https://api.github.com/users/AlexJamesWright/starred{/owner}{/repo}", "subscriptions_url": "https://api.github.com/users/AlexJamesWright/subscriptions", "organizations_url": "https://api.github.com/users/AlexJamesWright/orgs", "repos_url": "https://api.github.com/users/AlexJamesWright/repos", "events_url": "https://api.github.com/users/AlexJamesWright/events{/privacy}", "received_events_url": "https://api.github.com/users/AlexJamesWright/received_events", "type": "User", "site_admin": false }, "html_url": "https://github.com/AlexJamesWright/METHOD", "description": "Multifluid Electromagneto-HydroDynamics", "fork": false, "url": "https://api.github.com/repos/AlexJamesWright/METHOD", "forks_url": "https://api.github.com/repos/AlexJamesWright/METHOD/forks", "keys_url": "https://api.github.com/repos/AlexJamesWright/METHOD/keys{/key_id}", "collaborators_url": "https://api.github.com/repos/AlexJamesWright/METHOD/collaborators{/collaborator}", "teams_url": "https://api.github.com/repos/AlexJamesWright/METHOD/teams", "hooks_url": "https://api.github.com/repos/AlexJamesWright/METHOD/hooks", "issue_events_url": "https://api.github.com/repos/AlexJamesWright/METHOD/issues/events{/number}", "events_url": "https://api.github.com/repos/AlexJamesWright/METHOD/events", "assignees_url": "https://api.github.com/repos/AlexJamesWright/METHOD/assignees{/user}", "branches_url": "https://api.github.com/repos/AlexJamesWright/METHOD/branches{/branch}", "tags_url": "https://api.github.com/repos/AlexJamesWright/METHOD/tags", "blobs_url": "https://api.github.com/repos/AlexJamesWright/METHOD/git/blobs{/sha}", "git_tags_url": "https://api.github.com/repos/AlexJamesWright/METHOD/git/tags{/sha}", "git_refs_url": "https://api.github.com/repos/AlexJamesWright/METHOD/git/refs{/sha}", "trees_url": "https://api.github.com/repos/AlexJamesWright/METHOD/git/trees{/sha}", "statuses_url": "https://api.github.com/repos/AlexJamesWright/METHOD/statuses/{sha}", "languages_url": "https://api.github.com/repos/AlexJamesWright/METHOD/languages", "stargazers_url": "https://api.github.com/repos/AlexJamesWright/METHOD/stargazers", "contributors_url": "https://api.github.com/repos/AlexJamesWright/METHOD/contributors", "subscribers_url": "https://api.github.com/repos/AlexJamesWright/METHOD/subscribers", "subscription_url": "https://api.github.com/repos/AlexJamesWright/METHOD/subscription", "commits_url": "https://api.github.com/repos/AlexJamesWright/METHOD/commits{/sha}", "git_commits_url": "https://api.github.com/repos/AlexJamesWright/METHOD/git/commits{/sha}", "comments_url": "https://api.github.com/repos/AlexJamesWright/METHOD/comments{/number}", "issue_comment_url": "https://api.github.com/repos/AlexJamesWright/METHOD/issues/comments{/number}", "contents_url": "https://api.github.com/repos/AlexJamesWright/METHOD/contents/{+path}", "compare_url": "https://api.github.com/repos/AlexJamesWright/METHOD/compare/{base}...{head}", "merges_url": "https://api.github.com/repos/AlexJamesWright/METHOD/merges", "archive_url": "https://api.github.com/repos/AlexJamesWright/METHOD/{archive_format}{/ref}", "downloads_url": "https://api.github.com/repos/AlexJamesWright/METHOD/downloads", "issues_url": "https://api.github.com/repos/AlexJamesWright/METHOD/issues{/number}", "pulls_url": "https://api.github.com/repos/AlexJamesWright/METHOD/pulls{/number}", "milestones_url": "https://api.github.com/repos/AlexJamesWright/METHOD/milestones{/number}", "notifications_url": "https://api.github.com/repos/AlexJamesWright/METHOD/notifications{?since,all,participating}", "labels_url": "https://api.github.com/repos/AlexJamesWright/METHOD/labels{/name}", "releases_url": "https://api.github.com/repos/AlexJamesWright/METHOD/releases{/id}", "deployments_url": "https://api.github.com/repos/AlexJamesWright/METHOD/deployments", "created_at": "2017-10-05T09:22:47Z", "updated_at": "2022-08-30T22:01:54Z", "pushed_at": "2021-06-08T14:05:17Z", "git_url": "git://github.com/AlexJamesWright/METHOD.git", "ssh_url": "git@github.com:AlexJamesWright/METHOD.git", "clone_url": "https://github.com/AlexJamesWright/METHOD.git", "svn_url": "https://github.com/AlexJamesWright/METHOD", "homepage": "", "size": 57899, "stargazers_count": 2, "watchers_count": 2, "language": "C++", "has_issues": true, "has_projects": true, "has_downloads": true, "has_wiki": true, "has_pages": false, "has_discussions": true, "forks_count": 3, "mirror_url": null, "archived": false, "disabled": false, "open_issues_count": 7, "license": { "key": "gpl-3.0", "name": "GNU General Public License v3.0", "spdx_id": "GPL-3.0", "url": "https://api.github.com/licenses/gpl-3.0", "node_id": "MDc6TGljZW5zZTk=" }, "allow_forking": true, "is_template": false, "web_commit_signoff_required": false, "topics": [ ], "visibility": "public", "forks": 3, "open_issues": 7, "watchers": 2, "default_branch": "master", "permissions": { "admin": false, "maintain": false, "push": false, "triage": false, "pull": true }, "temp_clone_token": "", "network_count": 3, "subscribers_count": 2 }
