[{"origin":"https://github.com/OpenFAST/openfast","visit":26,"date":"2022-12-13T12:33:02.060435+00:00","status":"full","snapshot":"4e2feab5b45afd9262ee6334dd6e6e047638152f","type":"git","metadata":{},"origin_visit_url":"https://archive.softwareheritage.org/api/1/origin/https://github.com/OpenFAST/openfast/visit/26/","snapshot_url":"https://archive.softwareheritage.org/api/1/snapshot/4e2feab5b45afd9262ee6334dd6e6e047638152f/"},{"origin":"https://github.com/OpenFAST/openfast","visit":25,"date":"2022-11-19T08:50:00.103305+00:00","status":"full","snapshot":"c52b27e956131f2f24fcfb804bf29b941cb55e9d","type":"git","metadata":{},"origin_visit_url":"https://archive.softwareheritage.org/api/1/origin/https://github.com/OpenFAST/openfast/visit/25/","snapshot_url":"https://archive.softwareheritage.org/api/1/snapshot/c52b27e956131f2f24fcfb804bf29b941cb55e9d/"},{"origin":"https://github.com/OpenFAST/openfast","visit":24,"date":"2022-10-19T12:47:23.767277+00:00","status":"full","snapshot":"4ccc364704a1528d6f0f2ed6f54af4b842252c61","type":"git","metadata":{},"origin_visit_url":"https://archive.softwareheritage.org/api/1/origin/https://github.com/OpenFAST/openfast/visit/24/","snapshot_url":"https://archive.softwareheritage.org/api/1/snapshot/4ccc364704a1528d6f0f2ed6f54af4b842252c61/"},{"origin":"https://github.com/OpenFAST/openfast","visit":23,"date":"2022-09-30T13:39:59.972830+00:00","status":"full","snapshot":"671c9a2bda8ab653a9b9468994ce31c67272ec1f","type":"git","metadata":{},"origin_visit_url":"https://archive.softwareheritage.org/api/1/origin/https://github.com/OpenFAST/openfast/visit/23/","snapshot_url":"https://archive.softwareheritage.org/api/1/snapshot/671c9a2bda8ab653a9b9468994ce31c67272ec1f/"},{"origin":"https://github.com/OpenFAST/openfast","visit":22,"date":"2022-09-24T14:30:07.571851+00:00","status":"full","snapshot":"f5e29bb887d8d57744f0701117ac07649e2536b3","type":"git","metadata":{},"origin_visit_url":"https://archive.softwareheritage.org/api/1/origin/https://github.com/OpenFAST/openfast/visit/22/","snapshot_url":"https://archive.softwareheritage.org/api/1/snapshot/f5e29bb887d8d57744f0701117ac07649e2536b3/"},{"origin":"https://github.com/OpenFAST/openfast","visit":21,"date":"2022-09-05T22:11:41.841601+00:00","status":"full","snapshot":"afb12b718c0e59fdc510823a17e61206a0900dab","type":"git","metadata":{},"origin_visit_url":"https://archive.softwareheritage.org/api/1/origin/https://github.com/OpenFAST/openfast/visit/21/","snapshot_url":"https://archive.softwareheritage.org/api/1/snapshot/afb12b718c0e59fdc510823a17e61206a0900dab/"},{"origin":"https://github.com/OpenFAST/openfast","visit":20,"date":"2022-08-04T08:27:23.456008+00:00","status":"full","snapshot":"e178c4b6d86ff4c2169904924092473f0537ab6f","type":"git","metadata":{},"origin_visit_url":"https://archive.softwareheritage.org/api/1/origin/https://github.com/OpenFAST/openfast/visit/20/","snapshot_url":"https://archive.softwareheritage.org/api/1/snapshot/e178c4b6d86ff4c2169904924092473f0537ab6f/"},{"origin":"https://github.com/OpenFAST/openfast","visit":19,"date":"2022-07-13T14:24:54.568564+00:00","status":"full","snapshot":"f642a820e32f671188672b666ef512017732988b","type":"git","metadata":{},"origin_visit_url":"https://archive.softwareheritage.org/api/1/origin/https://github.com/OpenFAST/openfast/visit/19/","snapshot_url":"https://archive.softwareheritage.org/api/1/snapshot/f642a820e32f671188672b666ef512017732988b/"},{"origin":"https://github.com/OpenFAST/openfast","visit":18,"date":"2022-06-28T17:18:15.322523+00:00","status":"full","snapshot":"b1c203cdc1fb5c60ad56ed1204ad5896aaa3aa85","type":"git","metadata":{},"origin_visit_url":"https://archive.softwareheritage.org/api/1/origin/https://github.com/OpenFAST/openfast/visit/18/","snapshot_url":"https://archive.softwareheritage.org/api/1/snapshot/b1c203cdc1fb5c60ad56ed1204ad5896aaa3aa85/"},{"origin":"https://github.com/OpenFAST/openfast","visit":17,"date":"2022-06-10T23:53:13.977993+00:00","status":"full","snapshot":"d49eb90852203d63615bb45b4066963ce79df4e9","type":"git","metadata":{},"origin_visit_url":"https://archive.softwareheritage.org/api/1/origin/https://github.com/OpenFAST/openfast/visit/17/","snapshot_url":"https://archive.softwareheritage.org/api/1/snapshot/d49eb90852203d63615bb45b4066963ce79df4e9/"}]
[{"origin":"https://github.com/OpenFAST/openfast","visit":16,"date":"2022-05-09T18:51:38.212102+00:00","status":"full","snapshot":"cd5141cdc5c291240aeaa7d30554ca93b1b48d9f","type":"git","metadata":{},"origin_visit_url":"https://archive.softwareheritage.org/api/1/origin/https://github.com/OpenFAST/openfast/visit/16/","snapshot_url":"https://archive.softwareheritage.org/api/1/snapshot/cd5141cdc5c291240aeaa7d30554ca93b1b48d9f/"},{"origin":"https://github.com/OpenFAST/openfast","visit":15,"date":"2022-03-12T15:32:15.727749+00:00","status":"full","snapshot":"ad3b5f6fa81f38c12ea5218c75dfefdd53730980","type":"git","metadata":{},"origin_visit_url":"https://archive.softwareheritage.org/api/1/origin/https://github.com/OpenFAST/openfast/visit/15/","snapshot_url":"https://archive.softwareheritage.org/api/1/snapshot/ad3b5f6fa81f38c12ea5218c75dfefdd53730980/"},{"origin":"https://github.com/OpenFAST/openfast","visit":14,"date":"2022-02-14T02:50:40.176705+00:00","status":"full","snapshot":"9fe1fa302487643e6ebe05cff7399f3cbb67e2ad","type":"git","metadata":{},"origin_visit_url":"https://archive.softwareheritage.org/api/1/origin/https://github.com/OpenFAST/openfast/visit/14/","snapshot_url":"https://archive.softwareheritage.org/api/1/snapshot/9fe1fa302487643e6ebe05cff7399f3cbb67e2ad/"},{"origin":"https://github.com/OpenFAST/openfast","visit":13,"date":"2022-01-01T05:11:35.911536+00:00","status":"full","snapshot":"18fb89c6b26e9be1273c1e913d281a511b349587","type":"git","metadata":{},"origin_visit_url":"https://archive.softwareheritage.org/api/1/origin/https://github.com/OpenFAST/openfast/visit/13/","snapshot_url":"https://archive.softwareheritage.org/api/1/snapshot/18fb89c6b26e9be1273c1e913d281a511b349587/"},{"origin":"https://github.com/OpenFAST/openfast","visit":12,"date":"2021-12-20T13:30:42.860924+00:00","status":"full","snapshot":"57c456c4b0bbe7ef905ef6b85a408ace585b163f","type":"git","metadata":{},"origin_visit_url":"https://archive.softwareheritage.org/api/1/origin/https://github.com/OpenFAST/openfast/visit/12/","snapshot_url":"https://archive.softwareheritage.org/api/1/snapshot/57c456c4b0bbe7ef905ef6b85a408ace585b163f/"},{"origin":"https://github.com/OpenFAST/openfast","visit":11,"date":"2021-11-28T01:27:28.788313+00:00","status":"full","snapshot":"f8476d42a2004c306270fc65ceb075d8c30ca0a3","type":"git","metadata":{},"origin_visit_url":"https://archive.softwareheritage.org/api/1/origin/https://github.com/OpenFAST/openfast/visit/11/","snapshot_url":"https://archive.softwareheritage.org/api/1/snapshot/f8476d42a2004c306270fc65ceb075d8c30ca0a3/"},{"origin":"https://github.com/OpenFAST/openfast","visit":10,"date":"2021-10-25T02:03:40.660176+00:00","status":"full","snapshot":"ac361818023c9232fa62d900faff2ffce04d0676","type":"git","metadata":{},"origin_visit_url":"https://archive.softwareheritage.org/api/1/origin/https://github.com/OpenFAST/openfast/visit/10/","snapshot_url":"https://archive.softwareheritage.org/api/1/snapshot/ac361818023c9232fa62d900faff2ffce04d0676/"},{"origin":"https://github.com/OpenFAST/openfast","visit":9,"date":"2021-08-24T02:53:29.896509+00:00","status":"full","snapshot":"2127de421b614f6724cfae712ec28e943d4aa328","type":"git","metadata":{},"origin_visit_url":"https://archive.softwareheritage.org/api/1/origin/https://github.com/OpenFAST/openfast/visit/9/","snapshot_url":"https://archive.softwareheritage.org/api/1/snapshot/2127de421b614f6724cfae712ec28e943d4aa328/"},{"origin":"https://github.com/OpenFAST/openfast","visit":8,"date":"2021-08-17T02:18:31.108594+00:00","status":"full","snapshot":"df2ed5a07f17e7dadcaf1ea5967daa6b00479cd7","type":"git","metadata":{},"origin_visit_url":"https://archive.softwareheritage.org/api/1/origin/https://github.com/OpenFAST/openfast/visit/8/","snapshot_url":"https://archive.softwareheritage.org/api/1/snapshot/df2ed5a07f17e7dadcaf1ea5967daa6b00479cd7/"},{"origin":"https://github.com/OpenFAST/openfast","visit":7,"date":"2021-07-21T05:36:07.877005+00:00","status":"full","snapshot":"0edab150045e8633da865aa280b4176eac3cfc8f","type":"git","metadata":{},"origin_visit_url":"https://archive.softwareheritage.org/api/1/origin/https://github.com/OpenFAST/openfast/visit/7/","snapshot_url":"https://archive.softwareheritage.org/api/1/snapshot/0edab150045e8633da865aa280b4176eac3cfc8f/"}]
[{"origin":"https://github.com/OpenFAST/openfast","visit":6,"date":"2021-06-01T23:22:37.773356+00:00","status":"full","snapshot":"e3e135aa70f6d24a0ce93e10fb328c89ad547e7d","type":"git","metadata":{},"origin_visit_url":"https://archive.softwareheritage.org/api/1/origin/https://github.com/OpenFAST/openfast/visit/6/","snapshot_url":"https://archive.softwareheritage.org/api/1/snapshot/e3e135aa70f6d24a0ce93e10fb328c89ad547e7d/"},{"origin":"https://github.com/OpenFAST/openfast","visit":5,"date":"2018-12-23T14:51:20.912433+00:00","status":"partial","snapshot":null,"type":"git","metadata":{},"origin_visit_url":"https://archive.softwareheritage.org/api/1/origin/https://github.com/OpenFAST/openfast/visit/5/","snapshot_url":null},{"origin":"https://github.com/OpenFAST/openfast","visit":4,"date":"2018-10-09T13:43:32.972301+00:00","status":"full","snapshot":"0351fcb279e4888fa7ead5c98d67acb785cabc42","type":"git","metadata":{},"origin_visit_url":"https://archive.softwareheritage.org/api/1/origin/https://github.com/OpenFAST/openfast/visit/4/","snapshot_url":"https://archive.softwareheritage.org/api/1/snapshot/0351fcb279e4888fa7ead5c98d67acb785cabc42/"},{"origin":"https://github.com/OpenFAST/openfast","visit":3,"date":"2018-09-12T22:14:35.772963+00:00","status":"full","snapshot":"6179450777bb802a0ac72e5526bad362442806c9","type":"git","metadata":{},"origin_visit_url":"https://archive.softwareheritage.org/api/1/origin/https://github.com/OpenFAST/openfast/visit/3/","snapshot_url":"https://archive.softwareheritage.org/api/1/snapshot/6179450777bb802a0ac72e5526bad362442806c9/"},{"origin":"https://github.com/OpenFAST/openfast","visit":2,"date":"2018-07-07T06:40:45.709003+00:00","status":"full","snapshot":"2c0f9f69dfe90c52b80f82342d74b6d7a945d57b","type":"git","metadata":{},"origin_visit_url":"https://archive.softwareheritage.org/api/1/origin/https://github.com/OpenFAST/openfast/visit/2/","snapshot_url":"https://archive.softwareheritage.org/api/1/snapshot/2c0f9f69dfe90c52b80f82342d74b6d7a945d57b/"},{"origin":"https://github.com/OpenFAST/openfast","visit":1,"date":"2018-06-05T09:42:11.207142+00:00","status":"full","snapshot":"ca581eb4d601adf95cd1d9ab4b3f1ca3af971fe5","type":"git","metadata":{},"origin_visit_url":"https://archive.softwareheritage.org/api/1/origin/https://github.com/OpenFAST/openfast/visit/1/","snapshot_url":"https://archive.softwareheritage.org/api/1/snapshot/ca581eb4d601adf95cd1d9ab4b3f1ca3af971fe5/"}]
